4
configuration #:  1
O     0.000013629431023   0.000000658900000  -0.079573948491460
H     0.473907199741776   0.827234381274040   0.164447060046227
H     0.479603562237469  -0.823939539876527   0.164452037246227
H    -0.953299960478446  -0.003284750297514   0.164552756746316
4
configuration #:  2
O     0.000013356800000   0.000000658900000  -0.082180573700000
H     0.465143738500000   0.811921134300000   0.219397915800000
H     0.470734739600000  -0.808687120100000   0.219402893000000
H    -0.935648125000000  -0.003223923100000   0.219505784900000
4
configuration #:  3
O     0.000013084168977   0.000000658900000  -0.084787198908540
H     0.456380277258224   0.796607887325960   0.274348771553773
H     0.461865916962531  -0.793434700323473   0.274353748753773
H    -0.917996289521554  -0.003163095902486   0.274458813053684
4
configuration #:  4
O     0.000012811537954   0.000000658900000  -0.087393824117081
H     0.447616816016448   0.781294640351920   0.329299627307546
H     0.452997094325062  -0.778182280546947   0.329304604507546
H    -0.900344454043109  -0.003102268704973   0.329411841207368
4
configuration #:  5
O     0.000012538906932   0.000000658900000  -0.090000449325621
H     0.438853354774673   0.765981393377880   0.384250483061319
H     0.444128271687593  -0.762929860770420   0.384255460261319
H    -0.882692618564663  -0.003041441507459   0.384364869361052
4
configuration #:  6
O     0.000012266275909   0.000000658900000  -0.092607074534162
H     0.430089893532897   0.750668146403840   0.439201338815091
H     0.435259449050124  -0.747677440993894   0.439206316015091
H    -0.865040783086218  -0.002980614309946   0.439317897514736
4
configuration #:  7
O     0.000011993644886   0.000000658900000  -0.095213699742702
H     0.421326432291121   0.735354899429799   0.494152194568864
H     0.426390626412655  -0.732425021217367   0.494157171768864
H    -0.847388947607772  -0.002919787112432   0.494270925668420
4
configuration #:  8
O     0.000011721013863   0.000000658900000  -0.097820324951242
H     0.412562971049345   0.720041652455759   0.549103050322637
H     0.417521803775186  -0.717172601440841   0.549108027522637
H    -0.829737112129327  -0.002858959914919   0.549223953822104
4
configuration #:  9
O     0.000011448382841   0.000000658900000  -0.100426950159783
H     0.403799509807569   0.704728405481719   0.604053906076410
H     0.408652981137717  -0.701920181664314   0.604058883276410
H    -0.812085276650881  -0.002798132717405   0.604176981975788
4
configuration #:  10
O     0.000011175751818   0.000000658900000  -0.103033575368323
H     0.395036048565793   0.689415158507679   0.659004761830183
H     0.399784158500248  -0.686667761887788   0.659009739030183
H    -0.794433441172435  -0.002737305519891   0.659130010129472
4
configuration #:  11
O     0.001057030902118   0.001139542645537  -0.082180573700000
H     0.456457426470329   0.831203837444400   0.198918312449703
H     0.404580680206015  -0.842808078301273   0.225651993729580
H    -0.926817110009340  -0.060412600468121   0.233744556261345
4
configuration #:  12
O     0.000013356800000   0.000000658900000  -0.082180573700000
H     0.465143738500000   0.811921134300000   0.219397915800000
H     0.470734739600000  -0.808687120100000   0.219402893000000
H    -0.935648125000000  -0.003223923100000   0.219505784900000
4
configuration #:  13
O    -0.001030317302118  -0.001138224845537  -0.082180573700000
H     0.473830050529671   0.792638431155600   0.239877519150297
H     0.536888798993985  -0.774566161898727   0.213153792270420
H    -0.944479139990660   0.053964754268121   0.205267013538655
4
configuration #:  14
O    -0.002073991404235  -0.002277108591075  -0.082180573700000
H     0.482516362559342   0.773355728011200   0.260357122500595
H     0.603042858387971  -0.740445203697455   0.206904691540840
H    -0.953310154981320   0.111153431636242   0.191028242177309
4
configuration #:  15
O    -0.003117665506353  -0.003415992336612  -0.082180573700000
H     0.491202674589013   0.754073024866799   0.280836725850892
H     0.669196917781956  -0.706324245496182   0.200655590811260
H    -0.962141169971981   0.168342109004363   0.176789470815964
4
configuration #:  16
O    -0.004161339608471  -0.004554876082149  -0.082180573700000
H     0.499888986618683   0.734790321722399   0.301316329201189
H     0.735350977175942  -0.672203287294910   0.194406490081680
H    -0.970972184962641   0.225530786372484   0.162550699454619
4
configuration #:  17
O    -0.005205013710588  -0.005693759827687  -0.082180573700000
H     0.508575298648354   0.715507618577999   0.321795932551486
H     0.801505036569927  -0.638082329093637   0.188157389352100
H    -0.979803199953301   0.282719463740605   0.148311928093274
4
configuration #:  18
O    -0.006248687812706  -0.006832643573224  -0.082180573700000
H     0.517261610678025   0.696224915433599   0.342275535901784
H     0.867659095963913  -0.603961370892365   0.181908288622520
H    -0.988634214943961   0.339908141108726   0.134073156731928
4
configuration #:  19
O    -0.007292361914824  -0.007971527318761  -0.082180573700000
H     0.525947922707696   0.676942212289198   0.362755139252081
H     0.933813155357898  -0.569840412691092   0.175659187892940
H    -0.997465229934621   0.397096818476847   0.119834385370583
4
configuration #:  20
O    -0.008336036016941  -0.009110411064299  -0.082180573700000
H     0.534634234737367   0.657659509144798   0.383234742602378
H     0.999967214751884  -0.535719454489820   0.169410087163360
H    -1.006296244925281   0.454285495844968   0.105595614009238
4
configuration #:  21
O     0.001152239139657  -0.001043013913767  -0.082180833126501
H     0.397843508014492   0.847243083474692   0.224021169696483
H     0.456836037354079  -0.830834914531887   0.199359490460185
H    -0.926475002189519   0.049612230697071   0.234934202273753
4
configuration #:  22
O     0.000013356800000   0.000000658900000  -0.082180573700000
H     0.465143738500000   0.811921134300000   0.219397915800000
H     0.470734739600000  -0.808687120100000   0.219402893000000
H    -0.935648125000000  -0.003223923100000   0.219505784900000
4
configuration #:  23
O    -0.001125525539657   0.001044331713767  -0.082180314273499
H     0.532443968985508   0.776599185125308   0.214774661903517
H     0.484633441845921  -0.786539325668113   0.239446295539815
H    -0.944821247810482  -0.056060076897071   0.204077367526247
4
configuration #:  24
O    -0.002264407879313   0.002088004527535  -0.082180054846998
H     0.599744199471016   0.741277235950615   0.210151408007035
H     0.498532144091841  -0.764391531236226   0.259489698079630
H    -0.953994370620963  -0.108896230694142   0.188648950152494
4
configuration #:  25
O    -0.003403290218970   0.003131677341302  -0.082179795420497
H     0.667044429956523   0.705955286775923   0.205528154110552
H     0.512430846337762  -0.742243736804339   0.279533100619445
H    -0.963167493431445  -0.161732384491212   0.173220532778741
4
configuration #:  26
O    -0.004542172558626   0.004175350155069  -0.082179535993996
H     0.734344660442031   0.670633337601231   0.200904900214069
H     0.526329548583682  -0.720095942372452   0.299576503159260
H    -0.972340616241926  -0.214568538288283   0.157792115404988
4
configuration #:  27
O    -0.005681054898283   0.005219022968836  -0.082179276567495
H     0.801644890927539   0.635311388426538   0.196281646317587
H     0.540228250829603  -0.697948147940565   0.319619905699074
H    -0.981513739052408  -0.267404692085354   0.142363698031235
4
configuration #:  28
O    -0.006819937237939   0.006262695782604  -0.082179017140994
H     0.868945121413047   0.599989439251846   0.191658392421104
H     0.554126953075523  -0.675800353508678   0.339663308238889
H    -0.990686861862889  -0.320240845882425   0.126935280657482
4
configuration #:  29
O    -0.007958819577596   0.007306368596371  -0.082178757714493
H     0.936245351898555   0.564667490077154   0.187035138524621
H     0.568025655321444  -0.653652559076791   0.359706710778704
H    -0.999859984673370  -0.373076999679496   0.111506863283729
4
configuration #:  30
O    -0.009097701917252   0.008350041410138  -0.082178498287992
H     1.003545582384062   0.529345540902461   0.182411884628139
H     0.581924357567364  -0.631504764644904   0.379750113318519
H    -1.009033107483852  -0.425913153476567   0.096078445909977
4
configuration #:  31
O     0.000011328024794   0.000000658900000  -0.082894702572674
H     0.492868164073646   0.860323697402445   0.234462463369353
H     0.498788544282137  -0.856890641225841   0.234465419838627
H    -0.991304101046803  -0.003415892519060   0.234539011143086
4
configuration #:  32
O     0.000013356800000   0.000000658900000  -0.082180573700000
H     0.465143738500000   0.811921134300000   0.219397915800000
H     0.470734739600000  -0.808687120100000   0.219402893000000
H    -0.935648125000000  -0.003223923100000   0.219505784900000
4
configuration #:  33
O     0.000015385575206   0.000000658900000  -0.081466444827326
H     0.437419312926354   0.763518571197556   0.204333368230647
H     0.442680934917863  -0.760483598974159   0.204340366161373
H    -0.879992148953197  -0.003031953680940   0.204472558656914
4
configuration #:  34
O     0.000017414350413   0.000000658900000  -0.080752315954652
H     0.409694887352708   0.715116008095111   0.189268820661293
H     0.414627130235725  -0.712280077848319   0.189277839322747
H    -0.824336172906394  -0.002839984261881   0.189439332413828
4
configuration #:  35
O     0.000019443125619   0.000000658900000  -0.080038187081979
H     0.381970461779063   0.666713444992666   0.174204273091940
H     0.386573325553588  -0.664076556722478   0.174215312484120
H    -0.768680196859590  -0.002648014842821   0.174406106170742
4
configuration #:  36
O     0.000021471900826   0.000000658900000  -0.079324058209305
H     0.354246036205417   0.618310881890222   0.159139725522586
H     0.358519520871450  -0.615873035596637   0.159152785645494
H    -0.713024220812787  -0.002456045423762   0.159372879927657
4
configuration #:  37
O     0.000023500676032   0.000000658900000  -0.078609929336631
H     0.326521610631771   0.569908318787778   0.144075177953233
H     0.330465716189313  -0.567669514470796   0.144090258806867
H    -0.657368244765984  -0.002264076004702   0.144339653684571
4
configuration #:  38
O     0.000025529451239   0.000000658900000  -0.077895800463957
H     0.298797185058125   0.521505755685333   0.129010630383879
H     0.302411911507176  -0.519465993344956   0.129027731968241
H    -0.601712268719181  -0.002072106585643   0.129306427441485
4
configuration #:  39
O     0.000027558226445   0.000000658900000  -0.077181671591283
H     0.271072759484479   0.473103192582889   0.113946082814526
H     0.274358106825038  -0.471262472219115   0.113965205129614
H    -0.546056292672377  -0.001880137166583   0.114273201198399
4
configuration #:  40
O     0.000029587001652   0.000000658900000  -0.076467542718609
H     0.243348333910833   0.424700629480444   0.098881535245172
H     0.246304302142901  -0.423058951093274   0.098902678290988
H    -0.490400316625574  -0.001688167747524   0.099239974955313
4
configuration #:  41
O     0.000055876770242   0.001839516378502  -0.082180573700000
H     0.431121470885902   0.752689866981796   0.197429580221793
H     0.504137945206182  -0.865902253041072   0.240711383769094
H    -0.937718636445395  -0.003067066172319   0.220170858273369
4
configuration #:  42
O     0.000013356800000   0.000000658900000  -0.082180573700000
H     0.465143738500000   0.811921134300000   0.219397915800000
H     0.470734739600000  -0.808687120100000   0.219402893000000
H    -0.935648125000000  -0.003223923100000   0.219505784900000
4
configuration #:  43
O    -0.000029163170242  -0.001838198578502  -0.082180573700000
H     0.499166006114099   0.871152401618204   0.241366251378207
H     0.437331533993818  -0.751471987158928   0.198094402230906
H    -0.933577613554605  -0.003380780027681   0.218840711526631
4
configuration #:  44
O    -0.000071683140485  -0.003677056057004  -0.082180573700000
H     0.533188273728197   0.930383668936408   0.263334586956415
H     0.403928328387635  -0.694256854217856   0.176785911461811
H    -0.931507102109211  -0.003537636955363   0.218175638153262
4
configuration #:  45
O    -0.000114203110727  -0.005515913535505  -0.082180573700000
H     0.567210541342295   0.989614936254612   0.285302922534622
H     0.370525122781452  -0.637041721276783   0.155477420692717
H    -0.929436590663816  -0.003694493883044   0.217510564779892
4
configuration #:  46
O    -0.000156723080969  -0.007354771014007  -0.082180573700000
H     0.601232808956394   1.048846203572816   0.307271258112830
H     0.337121917175270  -0.579826588335711   0.134168929923623
H    -0.927366079218421  -0.003851350810726   0.216845491406523
4
configuration #:  47
O    -0.000199243051211  -0.009193628492509  -0.082180573700000
H     0.635255076570492   1.108077470891020   0.329239593691037
H     0.303718711569088  -0.522611455394639   0.112860439154528
H    -0.925295567773027  -0.004008207738407   0.216180418033154
4
configuration #:  48
O    -0.000241763021454  -0.011032485971011  -0.082180573700000
H     0.669277344184591   1.167308738209224   0.351207929269245
H     0.270315505962905  -0.465396322453567   0.091551948385434
H    -0.923225056327632  -0.004165064666088   0.215515344659785
4
configuration #:  49
O    -0.000284282991696  -0.012871343449513  -0.082180573700000
H     0.703299611798689   1.226540005527428   0.373176264847452
H     0.236912300356723  -0.408181189512495   0.070243457616340
H    -0.921154544882237  -0.004321921593770   0.214850271286416
4
configuration #:  50
O    -0.000326802961938  -0.014710200928014  -0.082180573700000
H     0.737321879412788   1.285771272845632   0.395144600425660
H     0.203509094750540  -0.350966056571422   0.048934966847245
H    -0.919084033436843  -0.004478778521451   0.214185197913046
4
configuration #:  51
O     0.001852228819207  -0.000041861406468  -0.082181623584110
H     0.446882310578833   0.779746386875247   0.207497609452701
H     0.450448795590224  -0.773550890462984   0.206352293420537
H    -1.013393307398619  -0.003495810591239   0.244516296930610
4
configuration #:  52
O     0.000013356800000   0.000000658900000  -0.082180573700000
H     0.465143738500000   0.811921134300000   0.219397915800000
H     0.470734739600000  -0.808687120100000   0.219402893000000
H    -0.935648125000000  -0.003223923100000   0.219505784900000
4
configuration #:  53
O    -0.001825515219207   0.000043179206468  -0.082179523815890
H     0.483405166421167   0.844095881724753   0.231298222147299
H     0.491020683609776  -0.843823349737016   0.232453492579463
H    -0.857902942601381  -0.002952035608761   0.194495272869390
4
configuration #:  54
O    -0.003664387238413   0.000085699512935  -0.082178473931779
H     0.501666594342334   0.876270629149506   0.243198528494598
H     0.511306627619552  -0.878959579374032   0.245504092158926
H    -0.780157760202763  -0.002680148117522   0.169484760838779
4
configuration #:  55
O    -0.005503259257620   0.000128219819403  -0.082177424047669
H     0.519928022263501   0.908445376574260   0.255098834841897
H     0.531592571629328  -0.914095809011048   0.258554691738389
H    -0.702412577804144  -0.002408260626284   0.144474248808169
4
configuration #:  56
O    -0.007342131276826   0.000170740125870  -0.082176374163559
H     0.538189450184668   0.940620123999013   0.266999141189195
H     0.551878515639104  -0.949232038648064   0.271605291317852
H    -0.624667395405525  -0.002136373135045   0.119463736777558
4
configuration #:  57
O    -0.009181003296033   0.000213260432338  -0.082175324279448
H     0.556450878105835   0.972794871423766   0.278899447536494
H     0.572164459648880  -0.984368268285080   0.284655890897315
H    -0.546922213006906  -0.001864485643806   0.094453224746948
4
configuration #:  58
O    -0.011019875315240   0.000255780738805  -0.082174274395338
H     0.574712306027002   1.004969618848519   0.290799753883793
H     0.592450403658656  -1.019504497922096   0.297706490476778
H    -0.469177030608288  -0.001592598152567   0.069442712716337
4
configuration #:  59
O    -0.012858747334446   0.000298301045273  -0.082173224511228
H     0.592973733948169   1.037144366273272   0.302700060231092
H     0.612736347668432  -1.054640727559112   0.310757090056242
H    -0.391431848209669  -0.001320710661328   0.044432200685727
4
configuration #:  60
O    -0.014697619353653   0.000340821351740  -0.082172174627118
H     0.611235161869336   1.069319113698026   0.314600366578391
H     0.633022291678208  -1.089776957196128   0.323807689635705
H    -0.313686665811050  -0.001048823170089   0.019421688655116
